Circuit: * D:\SEMESTER 7\ELDAY\exam-pe\mysim\dqtoabc.asc

Fatal Error: B1: Unknown circuit node: "theta" requested in behavioral source
