Circuit: * D:\SEMESTER 7\ELDAY\exam-pe\mysim\Substractor.asc

Fatal Error: B1: Unknown circuit node: "1" requested in behavioral source
